test/data/enwl/networks/network_2/Feeder_3/Loads.dss
New Load.LOAD1 Phases=1 Bus1=89.1 kV=0.23 kW=1 PF=0.95
New Load.LOAD2 Phases=1 Bus1=99.2 kV=0.23 kW=1 PF=0.95
New Load.LOAD3 Phases=1 Bus1=124.3 kV=0.23 kW=1 PF=0.95
New Load.LOAD4 Phases=1 Bus1=146.2 kV=0.23 kW=1 PF=0.95
New Load.LOAD5 Phases=1 Bus1=176.3 kV=0.23 kW=1 PF=0.95
New Load.LOAD6 Phases=1 Bus1=180.1 kV=0.23 kW=1 PF=0.95
New Load.LOAD7 Phases=1 Bus1=186.1 kV=0.23 kW=1 PF=0.95
New Load.LOAD8 Phases=1 Bus1=224.2 kV=0.23 kW=1 PF=0.95
New Load.LOAD9 Phases=1 Bus1=230.3 kV=0.23 kW=1 PF=0.95
New Load.LOAD10 Phases=1 Bus1=233.2 kV=0.23 kW=1 PF=0.95
New Load.LOAD11 Phases=1 Bus1=303.1 kV=0.23 kW=1 PF=0.95
New Load.LOAD12 Phases=1 Bus1=309.2 kV=0.23 kW=1 PF=0.95
New Load.LOAD13 Phases=1 Bus1=316.3 kV=0.23 kW=1 PF=0.95
New Load.LOAD14 Phases=1 Bus1=320.1 kV=0.23 kW=1 PF=0.95
New Load.LOAD15 Phases=1 Bus1=324.2 kV=0.23 kW=1 PF=0.95
New Load.LOAD16 Phases=1 Bus1=363.3 kV=0.23 kW=1 PF=0.95
New Load.LOAD17 Phases=1 Bus1=370.3 kV=0.23 kW=1 PF=0.95
New Load.LOAD18 Phases=1 Bus1=371.3 kV=0.23 kW=1 PF=0.95
New Load.LOAD19 Phases=1 Bus1=372.3 kV=0.23 kW=1 PF=0.95
New Load.LOAD20 Phases=1 Bus1=382.3 kV=0.23 kW=1 PF=0.95
New Load.LOAD21 Phases=1 Bus1=398.1 kV=0.23 kW=1 PF=0.95
New Load.LOAD22 Phases=1 Bus1=399.1 kV=0.23 kW=1 PF=0.95
New Load.LOAD23 Phases=1 Bus1=439.2 kV=0.23 kW=1 PF=0.95
New Load.LOAD24 Phases=1 Bus1=563.2 kV=0.23 kW=1 PF=0.95
New Load.LOAD25 Phases=1 Bus1=564.2 kV=0.23 kW=1 PF=0.95
New Load.LOAD26 Phases=1 Bus1=573.1 kV=0.23 kW=1 PF=0.95
New Load.LOAD27 Phases=1 Bus1=597.1 kV=0.23 kW=1 PF=0.95
New Load.LOAD28 Phases=1 Bus1=615.3 kV=0.23 kW=1 PF=0.95
New Load.LOAD29 Phases=1 Bus1=616.1 kV=0.23 kW=1 PF=0.95
New Load.LOAD30 Phases=1 Bus1=617.1 kV=0.23 kW=1 PF=0.95
New Load.LOAD31 Phases=1 Bus1=626.1 kV=0.23 kW=1 PF=0.95
New Load.LOAD32 Phases=1 Bus1=639.3 kV=0.23 kW=1 PF=0.95
New Load.LOAD33 Phases=1 Bus1=648.3 kV=0.23 kW=1 PF=0.95
New Load.LOAD34 Phases=1 Bus1=667.2 kV=0.23 kW=1 PF=0.95
New Load.LOAD35 Phases=1 Bus1=676.2 kV=0.23 kW=1 PF=0.95
New Load.LOAD36 Phases=1 Bus1=684.1 kV=0.23 kW=1 PF=0.95
New Load.LOAD37 Phases=1 Bus1=685.1 kV=0.23 kW=1 PF=0.95
New Load.LOAD38 Phases=1 Bus1=686.1 kV=0.23 kW=1 PF=0.95
New Load.LOAD39 Phases=1 Bus1=687.1 kV=0.23 kW=1 PF=0.95
New Load.LOAD40 Phases=1 Bus1=688.1 kV=0.23 kW=1 PF=0.95
New Load.LOAD41 Phases=1 Bus1=689.1 kV=0.23 kW=1 PF=0.95
New Load.LOAD42 Phases=1 Bus1=698.1 kV=0.23 kW=1 PF=0.95
New Load.LOAD43 Phases=1 Bus1=725.3 kV=0.23 kW=1 PF=0.95
New Load.LOAD44 Phases=1 Bus1=734.3 kV=0.23 kW=1 PF=0.95
New Load.LOAD45 Phases=1 Bus1=747.2 kV=0.23 kW=1 PF=0.95
New Load.LOAD46 Phases=1 Bus1=756.2 kV=0.23 kW=1 PF=0.95
New Load.LOAD47 Phases=1 Bus1=758.1 kV=0.23 kW=1 PF=0.95
New Load.LOAD48 Phases=1 Bus1=766.1 kV=0.23 kW=1 PF=0.95
New Load.LOAD49 Phases=1 Bus1=775.2 kV=0.23 kW=1 PF=0.95
New Load.LOAD50 Phases=1 Bus1=781.2 kV=0.23 kW=1 PF=0.95
New Load.LOAD51 Phases=1 Bus1=786.3 kV=0.23 kW=1 PF=0.95
New Load.LOAD52 Phases=1 Bus1=888.1 kV=0.23 kW=1 PF=0.95
New Load.LOAD53 Phases=1 Bus1=911.2 kV=0.23 kW=1 PF=0.95
New Load.LOAD54 Phases=1 Bus1=920.2 kV=0.23 kW=1 PF=0.95
New Load.LOAD55 Phases=1 Bus1=944.3 kV=0.23 kW=1 PF=0.95
New Load.LOAD56 Phases=1 Bus1=952.3 kV=0.23 kW=1 PF=0.95
New Load.LOAD57 Phases=1 Bus1=954.1 kV=0.23 kW=1 PF=0.95
New Load.LOAD58 Phases=1 Bus1=961.1 kV=0.23 kW=1 PF=0.95
New Load.LOAD59 Phases=1 Bus1=983.3 kV=0.23 kW=1 PF=0.95
New Load.LOAD60 Phases=1 Bus1=990.2 kV=0.23 kW=1 PF=0.95
New Load.LOAD61 Phases=1 Bus1=991.3 kV=0.23 kW=1 PF=0.95
New Load.LOAD62 Phases=1 Bus1=999.2 kV=0.23 kW=1 PF=0.95
New Load.LOAD63 Phases=1 Bus1=1095.1 kV=0.23 kW=1 PF=0.95
New Load.LOAD64 Phases=1 Bus1=1103.2 kV=0.23 kW=1 PF=0.95
New Load.LOAD65 Phases=1 Bus1=1112.2 kV=0.23 kW=1 PF=0.95
New Load.LOAD66 Phases=1 Bus1=1138.3 kV=0.23 kW=1 PF=0.95
New Load.LOAD67 Phases=1 Bus1=1139.3 kV=0.23 kW=1 PF=0.95
New Load.LOAD68 Phases=1 Bus1=1141.1 kV=0.23 kW=1 PF=0.95
New Load.LOAD69 Phases=1 Bus1=1145.1 kV=0.23 kW=1 PF=0.95
New Load.LOAD70 Phases=1 Bus1=1149.1 kV=0.23 kW=1 PF=0.95
New Load.LOAD71 Phases=1 Bus1=1153.3 kV=0.23 kW=1 PF=0.95
New Load.LOAD72 Phases=1 Bus1=1157.1 kV=0.23 kW=1 PF=0.95
New Load.LOAD73 Phases=1 Bus1=1164.3 kV=0.23 kW=1 PF=0.95
New Load.LOAD74 Phases=1 Bus1=1170.3 kV=0.23 kW=1 PF=0.95
New Load.LOAD75 Phases=1 Bus1=1195.2 kV=0.23 kW=1 PF=0.95
New Load.LOAD76 Phases=1 Bus1=1235.1 kV=0.23 kW=1 PF=0.95
New Load.LOAD77 Phases=1 Bus1=1248.3 kV=0.23 kW=1 PF=0.95
New Load.LOAD78 Phases=1 Bus1=1255.1 kV=0.23 kW=1 PF=0.95
New Load.LOAD79 Phases=1 Bus1=1270.1 kV=0.23 kW=1 PF=0.95
New Load.LOAD80 Phases=1 Bus1=1344.2 kV=0.23 kW=1 PF=0.95
New Load.LOAD81 Phases=1 Bus1=1349.3 kV=0.23 kW=1 PF=0.95
New Load.LOAD82 Phases=1 Bus1=1360.1 kV=0.23 kW=1 PF=0.95
New Load.LOAD83 Phases=1 Bus1=1398.1 kV=0.23 kW=1 PF=0.95
New Load.LOAD84 Phases=1 Bus1=1438.2 kV=0.23 kW=1 PF=0.95
New Load.LOAD85 Phases=1 Bus1=1440.1 kV=0.23 kW=1 PF=0.95
New Load.LOAD86 Phases=1 Bus1=1450.2 kV=0.23 kW=1 PF=0.95
New Load.LOAD87 Phases=1 Bus1=1471.3 kV=0.23 kW=1 PF=0.95
New Load.LOAD88 Phases=1 Bus1=1481.1 kV=0.23 kW=1 PF=0.95
New Load.LOAD89 Phases=1 Bus1=1484.3 kV=0.23 kW=1 PF=0.95
New Load.LOAD90 Phases=1 Bus1=1494.3 kV=0.23 kW=1 PF=0.95
New Load.LOAD91 Phases=1 Bus1=1503.2 kV=0.23 kW=1 PF=0.95
New Load.LOAD92 Phases=1 Bus1=1513.2 kV=0.23 kW=1 PF=0.95
New Load.LOAD93 Phases=1 Bus1=1522.3 kV=0.23 kW=1 PF=0.95
New Load.LOAD94 Phases=1 Bus1=1529.2 kV=0.23 kW=1 PF=0.95
New Load.LOAD95 Phases=1 Bus1=1530.1 kV=0.23 kW=1 PF=0.95
New Load.LOAD96 Phases=1 Bus1=1533.2 kV=0.23 kW=1 PF=0.95
New Load.LOAD97 Phases=1 Bus1=1537.2 kV=0.23 kW=1 PF=0.95
New Load.LOAD98 Phases=1 Bus1=1539.2 kV=0.23 kW=1 PF=0.95
New Load.LOAD99 Phases=1 Bus1=1551.1 kV=0.23 kW=1 PF=0.95
New Load.LOAD100 Phases=1 Bus1=1554.3 kV=0.23 kW=1 PF=0.95
New Load.LOAD101 Phases=1 Bus1=1556.1 kV=0.23 kW=1 PF=0.95
New Load.LOAD102 Phases=1 Bus1=1568.1 kV=0.23 kW=1 PF=0.95
New Load.LOAD103 Phases=1 Bus1=1569.1 kV=0.23 kW=1 PF=0.95
New Load.LOAD104 Phases=1 Bus1=1589.3 kV=0.23 kW=1 PF=0.95
New Load.LOAD105 Phases=1 Bus1=1594.3 kV=0.23 kW=1 PF=0.95
New Load.LOAD106 Phases=1 Bus1=1606.2 kV=0.23 kW=1 PF=0.95
New Load.LOAD107 Phases=1 Bus1=1636.1 kV=0.23 kW=1 PF=0.95
New Load.LOAD108 Phases=1 Bus1=1668.3 kV=0.23 kW=1 PF=0.95
New Load.LOAD109 Phases=1 Bus1=1673.3 kV=0.23 kW=1 PF=0.95
New Load.LOAD110 Phases=1 Bus1=1676.3 kV=0.23 kW=1 PF=0.95
New Load.LOAD111 Phases=1 Bus1=1678.2 kV=0.23 kW=1 PF=0.95
New Load.LOAD112 Phases=1 Bus1=1680.2 kV=0.23 kW=1 PF=0.95